Program Version,EnergyPlus, Version 25.2.0-6b7186059e, YMD=2026.02.12 16:08,
   ** Warning ** Version: in IDF="26.1" not the same as expected="25.2"
   ** Warning ** Version: in IDF="26.1" not the same as expected="25.2"
   ** Warning ** Weather file location will be used rather than entered (IDF) Location object.
   **   ~~~   ** ..Location object=DENVER CENTENNIAL  GOLDEN   N_CO_USA DESIGN_CONDITIONS
   **   ~~~   ** ..Weather File Location=Chicago Ohare Intl Ap IL USA TMY3 WMO#=725300
   **   ~~~   ** ..due to location differences, Latitude difference=[2.24] degrees, Longitude difference=[17.26] degrees.
   **   ~~~   ** ..Time Zone difference=[1.0] hour(s), Elevation difference=[89.01] percent, [1628.00] meters.
   ** Warning ** SetUpDesignDay: Entered DesignDay Barometric Pressure=81198 differs by more than 10% from Standard Barometric Pressure=98934.
   **   ~~~   ** ...occurs in DesignDay=DENVER CENTENNIAL  GOLDEN   N ANN HTG 99% CONDNS DB, Standard Pressure (based on elevation) will be used.
   ** Warning ** SetUpDesignDay: Entered DesignDay Barometric Pressure=81198 differs by more than 10% from Standard Barometric Pressure=98934.
   **   ~~~   ** ...occurs in DesignDay=DENVER CENTENNIAL  GOLDEN   N ANN CLG 1% CONDNS DB=>MWB, Standard Pressure (based on elevation) will be used.
   ************* Testing Individual Branch Integrity
   ************* All Branches passed integrity testing
   ************* Testing Individual Supply Air Path Integrity
   ************* All Supply Air Paths passed integrity testing
   ************* Testing Individual Return Air Path Integrity
   ************* All Return Air Paths passed integrity testing
   ************* No node connection errors were found.
   ************* Beginning Simulation
   ** Warning ** Temperature out of range [-100. to 200.] (PsyPsatFnTemp)
   **   ~~~   **  Routine=PsyTwbFnTdbWPb, Environment=RUN PERIOD 1, at Simulation time=03/16 04:30 - 04:45
   **   ~~~   **  Input Temperature=-3116.26
   ** Warning ** WetBulb not converged after 101 iterations(PsyTwbFnTdbWPb)
   **   ~~~   **  Routine=Unknown, Environment=RUN PERIOD 1, at Simulation time=11/21 10:15 - 10:30
   **   ~~~   **  Input Temperature = 6.34
   **   ~~~   **  Input Humidity Ratio= 1.257224E-003
   **   ~~~   **  Input Pressure = 100150.00
   **   ~~~   **  Resultant Temperature= -3.62E-003
   ** Severe  ** DetermineShadowingCombinations: There are 2 surfaces which are casting surfaces and are non-convex.
   **   ~~~   ** ...Shadowing values may be inaccurate. Check .shd report file for more surface shading details
   **   ~~~   ** ...Add Output:Diagnostics,DisplayExtraWarnings; to see individual severes for each surface.
   ** Warning ** SizeUnitarySystem: ZoneHVAC:PackagedTerminalHeatPump = THERMAL ZONE 1 PTHP
   **  Fatal  ** Unable to determine fan air flow rate.
   ************* Simulation Error Summary *************
   *************
   ************* ===== Recurring Error Summary =====
   ************* The following recurring error messages occurred.
   *************
   *************  ** Warning ** Temperature out of range [-100. to 200.] (PsyPsatFnTemp)
   *************  **   ~~~   **   This error occurred 1 total times;
   *************  **   ~~~   **   during Warmup 0 times;
   *************  **   ~~~   **   during Sizing 0 times.
   *************  **   ~~~   **   Max=-3116.264404 C  Min=-3116.264404 C
   *************
   *************  ** Warning ** WetBulb not converged after max iterations(PsyTwbFnTdbWPb)
   *************  **   ~~~   **   This error occurred 1 total times;
   *************  **   ~~~   **   during Warmup 0 times;
   *************  **   ~~~   **   during Sizing 0 times.
   *************
   ************* EnergyPlus Warmup Error Summary. During Warmup: 0 Warning; 0 Severe Errors.
   ************* EnergyPlus Sizing Error Summary. During Sizing: 0 Warning; 0 Severe Errors.
   ************* EnergyPlus Completed Successfully-- 7 Warning; 0 Severe Errors; Elapsed Time=00hr 00min  0.61sec
